7JY4_W47_A_702_FMO_lig_H.pdb
 OpenBabel11112419313D

 49 52  0  0  1  0  0  0  0  0999 V2000
   -7.5690   -4.8640   -6.3290 C   0  0  0  0  0  0  0  0  0  0  0  0
   -8.3380   -3.6660   -6.6920 C   0  0  0  0  0  0  0  0  0  0  0  0
   -7.9890   -2.6760   -7.6300 C   0  0  0  0  0  0  0  0  0  0  0  0
   -9.0290   -1.7810   -7.5990 C   0  0  0  0  0  0  0  0  0  0  0  0
   -9.9080   -2.2680   -6.6790 N   0  0  0  0  0  0  0  0  0  0  0  0
   -9.5140   -3.4190   -6.1080 N   0  0  0  0  0  0  0  0  0  0  0  0
   -9.2500   -0.5590   -8.3350 C   0  0  0  0  0  0  0  0  0  0  0  0
  -10.5230    0.0090   -8.3730 C   0  0  0  0  0  0  0  0  0  0  0  0
  -10.7290    1.1930   -9.0820 C   0  0  0  0  0  0  0  0  0  0  0  0
   -9.6680    1.8070   -9.7510 C   0  0  0  0  0  0  0  0  0  0  0  0
   -8.3920    1.2400   -9.7160 C   0  0  0  0  0  0  0  0  0  0  0  0
   -8.1950    0.0570   -9.0050 C   0  0  0  0  0  0  0  0  0  0  0  0
   -6.9510   -0.5380   -8.9380 O   0  0  0  0  0  0  0  0  0  0  0  0
   -6.1370   -0.1460  -10.0510 C   0  0  1  0  0  0  0  0  0  0  0  0
   -5.3200    1.1040   -9.9220 C   0  0  0  0  0  0  0  0  0  0  0  0
   -4.6470   -0.2470   -9.7500 C   0  0  2  0  0  0  0  0  0  0  0  0
   -3.7630   -0.7330  -10.8350 C   0  0  0  0  0  0  0  0  0  0  0  0
   -2.3450   -0.3580  -10.6370 N   0  0  0  0  0  4  0  0  0  0  0  0
   -4.2450   -0.6090   -8.3620 C   0  0  0  0  0  0  0  0  0  0  0  0
   -3.7360    0.3650   -7.5020 C   0  0  0  0  0  0  0  0  0  0  0  0
   -3.3600    0.0210   -6.2030 C   0  0  0  0  0  0  0  0  0  0  0  0
   -3.4960   -1.2980   -5.7710 C   0  0  0  0  0  0  0  0  0  0  0  0
   -4.0030   -2.2790   -6.6200 C   0  0  0  0  0  0  0  0  0  0  0  0
   -4.3750   -1.9230   -7.9160 C   0  0  0  0  0  0  0  0  0  0  0  0
  -12.0880    1.7910   -9.1160 C   0  0  0  0  0  0  0  0  0  0  0  0
   -3.1340   -1.6280   -4.5220 F   0  0  0  0  0  0  0  0  0  0  0  0
   -4.8650   -2.8540   -8.7480 F   0  0  0  0  0  0  0  0  0  0  0  0
  -12.1930    2.9080   -8.3510 F   0  0  0  0  0  0  0  0  0  0  0  0
  -12.4760    2.1530  -10.3670 F   0  0  0  0  0  0  0  0  0  0  0  0
  -13.0390    0.9370   -8.6560 F   0  0  0  0  0  0  0  0  0  0  0  0
   -9.8770   -4.0570   -5.4150 H   0  0  0  0  0  0  0  0  0  0  0  0
   -9.8330    2.7240  -10.2980 H   0  0  0  0  0  0  0  0  0  0  0  0
   -7.5740    1.7180  -10.2350 H   0  0  0  0  0  0  0  0  0  0  0  0
   -6.4720   -0.4310  -11.0480 H   0  0  0  0  0  0  0  0  0  0  0  0
   -3.6330    1.3850   -7.8420 H   0  0  0  0  0  0  0  0  0  0  0  0
   -2.9660    0.7750   -5.5370 H   0  0  0  0  0  0  0  0  0  0  0  0
   -4.1030   -3.2960   -6.2710 H   0  0  0  0  0  0  0  0  0  0  0  0
   -7.0610   -2.7530   -8.1760 H   0  0  0  0  0  0  0  0  0  0  0  0
  -11.3470   -0.4620   -7.8580 H   0  0  0  0  0  0  0  0  0  0  0  0
   -5.5180    1.3370   -8.8760 H   0  0  0  0  0  0  0  0  0  0  0  0
   -5.0980    1.2790  -10.9750 H   0  0  0  0  0  0  0  0  0  0  0  0
   -4.1120   -0.3390  -11.7900 H   0  0  0  0  0  0  0  0  0  0  0  0
   -3.8440   -1.8170  -10.9090 H   0  0  0  0  0  0  0  0  0  0  0  0
   -1.7920   -0.7140  -11.4030 H   0  0  0  0  0  0  0  0  0  0  0  0
   -2.2640    0.6480  -10.6030 H   0  0  0  0  0  0  0  0  0  0  0  0
   -2.0100   -0.7520   -9.7690 H   0  0  0  0  0  0  0  0  0  0  0  0
   -8.1120   -5.4290   -5.5710 H   0  0  0  0  0  0  0  0  0  0  0  0
   -7.4260   -5.4860   -7.2120 H   0  0  0  0  0  0  0  0  0  0  0  0
   -6.5980   -4.5670   -5.9340 H   0  0  0  0  0  0  0  0  0  0  0  0
  1 49  1  0  0  0  0
  1 47  1  0  0  0  0
  2  1  1  0  0  0  0
  2  6  1  0  0  0  0
  3  4  1  0  0  0  0
  3  2  2  0  0  0  0
  4  5  2  0  0  0  0
  5  6  1  0  0  0  0
  6 31  1  0  0  0  0
  7  4  1  0  0  0  0
  8  7  1  0  0  0  0
  8 39  1  0  0  0  0
  9  8  2  0  0  0  0
 10 11  2  0  0  0  0
 10  9  1  0  0  0  0
 11 12  1  0  0  0  0
 12 13  1  0  0  0  0
 12  7  2  0  0  0  0
 14 34  1  6  0  0  0
 14 15  1  0  0  0  0
 14 16  1  0  0  0  0
 14 13  1  0  0  0  0
 15 16  1  0  0  0  0
 15 40  1  0  0  0  0
 16 17  1  6  0  0  0
 16 19  1  0  0  0  0
 17 18  1  0  0  0  0
 18 45  1  0  0  0  0
 18 46  1  0  0  0  0
 19 24  2  0  0  0  0
 19 20  1  0  0  0  0
 20 21  2  0  0  0  0
 21 22  1  0  0  0  0
 21 36  1  0  0  0  0
 22 26  1  0  0  0  0
 23 37  1  0  0  0  0
 23 22  2  0  0  0  0
 24 23  1  0  0  0  0
 25  9  1  0  0  0  0
 25 30  1  0  0  0  0
 25 28  1  0  0  0  0
 27 24  1  0  0  0  0
 29 25  1  0  0  0  0
 32 10  1  0  0  0  0
 33 11  1  0  0  0  0
 35 20  1  0  0  0  0
 38  3  1  0  0  0  0
 41 15  1  0  0  0  0
 42 17  1  0  0  0  0
 43 17  1  0  0  0  0
 44 18  1  0  0  0  0
 48  1  1  0  0  0  0
M  END
$$$$
